[General]
network = TargetNetwork
sim-time-limit = 1.0s

*.configurator.config = xml("<config><interface hosts='**' address='192.x.x.x' netmask='255.x.x.x'/></config>")
*.dds_cpu.numApps = 1
*.dds_cpu.app[0].typename = "DDSPublishApp"
*.dds_cpu.app[0].io.receiveBroadcast = true
*.dds_cpu.ipv4.ip.limitedBroadcast = true
*.dds_cpu.app[0].sink.typename = ""
*.dds_cpu.app[0].io.publish = "Topic1"
*.dds_cpu.app[0].io.destPort = 1000
*.dds_cpu.app[0].source.packetLength = 5000B
*.dds_cpu.app[0].source.productionInterval = exponential(200ms)

*.dds_cpu2.numApps = 1
*.dds_cpu2.app[0].typename = "DDSPublishApp"
*.dds_cpu2.app[0].io.receiveBroadcast = true
*.dds_cpu2.ipv4.ip.limitedBroadcast = true
*.dds_cpu2.app[0].sink.typename = ""
*.dds_cpu2.app[0].io.publish = "Topic2"
*.dds_cpu2.app[0].io.destPort = 1001
*.dds_cpu2.app[0].source.packetLength = 1000B
*.dds_cpu2.app[0].source.productionInterval = exponential(200ms)

*.dds_cpu3.numApps = 1
*.dds_cpu3.app[0].typename = "DDSSubscribeApp"
*.dds_cpu3.app[0].io.localPort = 1000
*.dds_cpu3.app[0].source.subscribe = "Topic1@1000"
*.dds_cpu3.app[0].source.packetLength = 20B
*.dds_cpu3.ipv4.ip.limitedBroadcast = true 
*.dds_cpu3.app[0].sink.flowName = "default1"

*.dds_cpu4.numApps = 1
*.dds_cpu4.app[0].typename = "DDSSubscribeApp"
*.dds_cpu4.app[0].io.localPort = 1001
*.dds_cpu4.app[0].source.subscribe = "Topic2@1001"
*.dds_cpu4.app[0].source.packetLength = 20B
*.dds_cpu4.ipv4.ip.limitedBroadcast = true 
*.dds_cpu4.app[0].sink.flowName = "default2"

*.dds_cpu5.numApps = 1
*.dds_cpu5.app[0].typename = "DDSSubscribeApp"
*.dds_cpu5.app[0].io.localPort = 1001
*.dds_cpu5.app[0].source.subscribe = "Topic2@1001"
*.dds_cpu5.app[0].source.packetLength = 20B
*.dds_cpu5.ipv4.ip.limitedBroadcast = true 
*.dds_cpu5.app[0].sink.flowName = "default3"

*.dds_switch.ethernet.typename = "EthernetLayer"
*.dds_switch.eth[*].typename = "LayeredEthernetInterface"
*.dds_switch.eth[*].bitrate = 100Mbps
*.dds_switch2.ethernet.typename = "EthernetLayer"
*.dds_switch2.eth[*].typename = "LayeredEthernetInterface"
*.dds_switch2.eth[*].bitrate = 100Mbps

