[General]
network = TargetNetwork
sim-time-limit = 1.5s
**.statistic-recording = false
*.*.ethernet.typename = "EthernetLayer"
*.*.eth[*].typename = "LayeredEthernetInterface"
*.*.eth[*].bitrate = 100Mbps
**.eth[*].queue.typename = "DropTailQueue"
**.eth[*].queue.packetCapacity = 100
**.forwarding = false
**.arp.retryTimeout = 1s
**.arp.retryCount = 3
**.arp.cacheTimeout = 100s
**.tcp.tcpAlgorithmClass = "TcpReno"
**.tcp.typename = "Tcp"
**.tcp.advertisedWindow = 65535
**.tcp.delayedAcksEnabled = false
**.tcp.nagleEnabled = true
**.tcp.limitedTransmitEnabled = false
**.tcp.increasedIWEnabled = false
**.tcp.sackSupport = false
**.tcp.windowScalingSupport = false
**.tcp.timestampSupport = false
**.tcp.mss = 1452
*.configurator.config = xml("<config>\n" + \
"<interface hosts='udp_tcp' address='192.168.0.1' netmask='255.255.255.x'/>\n" + \
"<interface hosts='udp_tcp2' address='192.168.0.2' netmask='255.255.255.x'/>\n" + \
"<interface hosts='udp_tcp3' address='192.168.0.3' netmask='255.255.255.x'/>\n" + \
"<interface hosts='udp_tcp4' address='192.168.0.4' netmask='255.255.255.x'/>\n" + \
"<interface hosts='udp_tcp5' address='192.168.0.5' netmask='255.255.255.x'/>\n" + \
"<interface hosts='udp_tcp6' address='192.168.0.6' netmask='255.255.255.x'/>\n" + \
"<interface hosts='udp_tcp7' address='192.168.0.7' netmask='255.255.255.x'/>\n" + \
"<interface hosts='udp_tcp8' address='192.168.0.8' netmask='255.255.255.x'/>\n" + \
"<interface hosts='udp_tcp9' address='192.168.0.9' netmask='255.255.255.x'/>\n" + \
"<interface hosts='udp_tcp10' address='192.168.0.10' netmask='255.255.255.x'/>\n" + \
"<interface hosts='udp_tcp11' address='192.168.0.11' netmask='255.255.255.x'/>\n" + \
"<interface hosts='udp_tcp12' address='192.168.0.12' netmask='255.255.255.x'/>\n" + \
"<interface hosts='udp_tcp13' address='192.168.0.13' netmask='255.255.255.x'/>\n" + \
"<interface hosts='udp_tcp14' address='192.168.0.14' netmask='255.255.255.x'/>\n" + \
"<interface hosts='udp_tcp15' address='192.168.0.15' netmask='255.255.255.x'/>\n" + \
"<interface hosts='udp_tcp16' address='192.168.0.16' netmask='255.255.255.x'/>\n" + \
"<interface hosts='udp_tcp17' address='192.168.0.17' netmask='255.255.255.x'/>\n" + \
"<interface hosts='udp_tcp18' address='192.168.0.18' netmask='255.255.255.x'/>\n" + \
"<interface hosts='udp_tcp19' address='192.168.0.19' netmask='255.255.255.x'/>\n" + \
"<interface hosts='udp_tcp20' address='192.168.0.20' netmask='255.255.255.x'/>\n" + \
"<interface hosts='udp_tcp21' address='192.168.0.21' netmask='255.255.255.x'/>\n" + \
"<interface hosts='udp_tcp22' address='192.168.0.22' netmask='255.255.255.x'/>\n" + \
"<interface hosts='udp_tcp23' address='192.168.0.23' netmask='255.255.255.x'/>\n" + \
"<interface hosts='udp_tcp24' address='192.168.0.24' netmask='255.255.255.x'/>\n" + \
"<interface hosts='udp_tcp25' address='192.168.0.25' netmask='255.255.255.x'/>\n" + \
"<interface hosts='udp_tcp26' address='192.168.0.26' netmask='255.255.255.x'/>\n" + \
"<interface hosts='udp_tcp27' address='192.168.0.27' netmask='255.255.255.x'/>\n" + \
"<interface hosts='udp_tcp28' address='192.168.0.28' netmask='255.255.255.x'/>\n" + \
"<interface hosts='udp_tcp29' address='192.168.0.29' netmask='255.255.255.x'/>\n" + \
"<interface hosts='udp_tcp30' address='192.168.0.30' netmask='255.255.255.x'/>\n" + \
"<interface hosts='udp_tcp31' address='192.168.0.31' netmask='255.255.255.x'/>\n" + \
"<interface hosts='udp_tcp32' address='192.168.0.32' netmask='255.255.255.x'/>\n" + \
"<interface hosts='udp_tcp33' address='192.168.0.33' netmask='255.255.255.x'/>\n" + \
"<interface hosts='udp_tcp34' address='192.168.0.34' netmask='255.255.255.x'/>\n" + \
"<interface hosts='udp_tcp35' address='192.168.0.35' netmask='255.255.255.x'/>\n" + \
"<interface hosts='udp_tcp36' address='192.168.0.36' netmask='255.255.255.x'/>\n" + \
"<interface hosts='udp_tcp37' address='192.168.0.37' netmask='255.255.255.x'/>\n" + \
"<interface hosts='udp_tcp38' address='192.168.0.38' netmask='255.255.255.x'/>\n" + \
"<interface hosts='udp_tcp39' address='192.168.0.39' netmask='255.255.255.x'/>\n" + \
"<interface hosts='udp_tcp40' address='192.168.0.40' netmask='255.255.255.x'/>\n" + \
"</config>")
*.udp_tcp.numApps = 1
*.udp_tcp.app[0].typename = "UdpApp615"
*.udp_tcp.app[0].source.packetLength = 1000B
*.udp_tcp.app[0].source.productionInterval = exponential(10ms)
*.udp_tcp.app[0].io.destAddress = "udp_tcp2"
*.udp_tcp.app[0].io.destPort = 1000
*.udp_tcp.app[0].sink.typename = ""

*.udp_tcp2.numApps = 1
*.udp_tcp2.app[0].typename = "UdpApp615"
*.udp_tcp2.app[0].source.typename = ""
*.udp_tcp2.app[0].io.destPort = -1
*.udp_tcp2.app[0].io.localPort = 1000
*.udp_tcp2.app[0].sink.flowName = "default2"

*.udp_tcp3.numApps = 0
*.udp_tcp4.numApps = 0
*.udp_tcp5.numApps = 0
*.udp_tcp6.numApps = 0
*.udp_tcp7.numApps = 0
*.udp_tcp8.numApps = 0
*.udp_tcp9.numApps = 1
*.udp_tcp9.app[0].typename = "UdpApp615"
*.udp_tcp9.app[0].source.packetLength = 1000B
*.udp_tcp9.app[0].source.productionInterval = exponential(10ms)
*.udp_tcp9.app[0].io.destAddress = "udp_tcp10"
*.udp_tcp9.app[0].io.destPort = 1000
*.udp_tcp9.app[0].sink.typename = ""

*.udp_tcp10.numApps = 1
*.udp_tcp10.app[0].typename = "UdpApp615"
*.udp_tcp10.app[0].source.typename = ""
*.udp_tcp10.app[0].io.destPort = -1
*.udp_tcp10.app[0].io.localPort = 1000
*.udp_tcp10.app[0].sink.flowName = "default10"

*.udp_tcp11.numApps = 0
*.udp_tcp12.numApps = 0
*.udp_tcp13.numApps = 0
*.udp_tcp14.numApps = 0
*.udp_tcp15.numApps = 0
*.udp_tcp16.numApps = 0
*.udp_tcp17.numApps = 1
*.udp_tcp17.app[0].typename = "UdpApp615"
*.udp_tcp17.app[0].source.packetLength = 1000B
*.udp_tcp17.app[0].source.productionInterval = exponential(10ms)
*.udp_tcp17.app[0].io.destAddress = "udp_tcp18"
*.udp_tcp17.app[0].io.destPort = 1000
*.udp_tcp17.app[0].sink.typename = ""

*.udp_tcp18.numApps = 1
*.udp_tcp18.app[0].typename = "UdpApp615"
*.udp_tcp18.app[0].source.typename = ""
*.udp_tcp18.app[0].io.destPort = -1
*.udp_tcp18.app[0].io.localPort = 1000
*.udp_tcp18.app[0].sink.flowName = "default18"

*.udp_tcp19.numApps = 0
*.udp_tcp20.numApps = 0
*.udp_tcp21.numApps = 0
*.udp_tcp22.numApps = 0
*.udp_tcp23.numApps = 0
*.udp_tcp24.numApps = 0
*.udp_tcp25.numApps = 0
*.udp_tcp26.numApps = 0
*.udp_tcp27.numApps = 0
*.udp_tcp28.numApps = 0
*.udp_tcp29.numApps = 1
*.udp_tcp29.app[0].typename = "UdpApp615"
*.udp_tcp29.app[0].source.packetLength = 1000B
*.udp_tcp29.app[0].source.productionInterval = exponential(10ms)
*.udp_tcp29.app[0].io.destAddress = "udp_tcp30"
*.udp_tcp29.app[0].io.destPort = 1000
*.udp_tcp29.app[0].sink.typename = ""

*.udp_tcp30.numApps = 1
*.udp_tcp30.app[0].typename = "UdpApp615"
*.udp_tcp30.app[0].source.typename = ""
*.udp_tcp30.app[0].io.destPort = -1
*.udp_tcp30.app[0].io.localPort = 1000
*.udp_tcp30.app[0].sink.flowName = "default30"

*.udp_tcp31.numApps = 0
*.udp_tcp32.numApps = 0
*.udp_tcp33.numApps = 1
*.udp_tcp33.app[0].typename = "UdpApp615"
*.udp_tcp33.app[0].source.packetLength = 1000B
*.udp_tcp33.app[0].source.productionInterval = exponential(10ms)
*.udp_tcp33.app[0].io.destAddress = "udp_tcp34"
*.udp_tcp33.app[0].io.destPort = 1000
*.udp_tcp33.app[0].sink.typename = ""

*.udp_tcp34.numApps = 1
*.udp_tcp34.app[0].typename = "UdpApp615"
*.udp_tcp34.app[0].source.typename = ""
*.udp_tcp34.app[0].io.destPort = -1
*.udp_tcp34.app[0].io.localPort = 1000
*.udp_tcp34.app[0].sink.flowName = "default34"

*.udp_tcp35.numApps = 0
*.udp_tcp36.numApps = 0
*.udp_tcp37.numApps = 0
*.udp_tcp38.numApps = 0
*.udp_tcp39.numApps = 0
*.udp_tcp40.numApps = 0
*.switch.eth[*].bitrate = 100Mbps
*.switch2.eth[*].bitrate = 100Mbps
*.switch3.eth[*].bitrate = 100Mbps
*.switch4.eth[*].bitrate = 100Mbps
*.switch5.eth[*].bitrate = 100Mbps

