[General]
network = TargetNetwork
sim-time-limit = 1.5s
**.statistic-recording = false
*.*.ethernet.typename = "EthernetLayer"
*.*.eth[*].typename = "LayeredEthernetInterface"
*.*.eth[*].bitrate = 100Mbps
**.eth[*].queue.typename = "DropTailQueue"
**.eth[*].queue.packetCapacity = 20
**.forwarding = false
**.arp.retryTimeout = 1s
**.arp.retryCount = 3
**.arp.cacheTimeout = 100s
**.tcp.tcpAlgorithmClass = "TcpReno"
**.tcp.typename = "Tcp"
**.tcp.advertisedWindow = 65535
**.tcp.delayedAcksEnabled = false
**.tcp.nagleEnabled = true
**.tcp.limitedTransmitEnabled = false
**.tcp.increasedIWEnabled = false
**.tcp.sackSupport = false
**.tcp.windowScalingSupport = false
**.tcp.timestampSupport = false
**.tcp.mss = 1452
*.configurator.config = xml("<config>\n" + \
"</config>")

